<?xml version="1.0" encoding="UTF-8"?>

<!-- generated on 03/29/16 12:58:36 by SUMO netconvert Version 0.25.0
<?xml version="1.0" encoding="UTF-8"?>

<configuration xmlns:xsi="http://www.w3.org/2001/XMLSchema-instance" xsi:noNamespaceSchemaLocation="http://sumo.dlr.de/xsd/netconvertConfiguration.xsd">

    <input>
        <node-files value="ait.nod.xml"/>
        <edge-files value="ait.edg.xml"/>
        <connection-files value="ait.con.xml"/>
        <type-files value="ait.typ.xml"/>
    </input>

    <output>
        <output-file value="ait.net.xml"/>
    </output>

    <processing>
        <no-turnarounds value="true"/>
    </processing>

</configuration>
-->

<net version="0.25" xmlns:xsi="http://www.w3.org/2001/XMLSchema-instance" xsi:noNamespaceSchemaLocation="http://sumo.dlr.de/xsd/net_file.xsd">

    <location netOffset="25.00,20.00" convBoundary="0.00,0.00,228.00,130.00" origBoundary="-25.00,-20.00,203.00,110.00" projParameter="!"/>

    <type id="1lane" priority="2" numLanes="1" speed="13.89"/>

    <edge id=":10_0" function="internal">
        <lane id=":10_0_0" index="0" speed="13.89" length="13.38" shape="163.35,49.75 162.58,48.39 160.26,47.43 156.40,46.84 151.00,46.65"/>
    </edge>
    <edge id=":10_1" function="internal">
        <lane id=":10_1_0" index="0" speed="13.89" length="10.32" shape="163.35,49.75 163.75,46.95 164.95,44.95 166.95,43.75 169.75,43.35"/>
    </edge>
    <edge id=":10_2" function="internal">
        <lane id=":10_2_0" index="0" speed="13.89" length="18.75" shape="169.75,46.65 165.41,46.65 160.38,46.65 155.34,46.65 151.00,46.65"/>
    </edge>
    <edge id=":10_3" function="internal">
        <lane id=":10_3_0" index="0" speed="13.89" length="12.07" shape="151.00,43.35 157.85,43.75 162.74,44.95 162.88,45.05"/>
    </edge>
    <edge id=":10_4" function="internal">
        <lane id=":10_4_0" index="0" speed="13.89" length="6.34" shape="162.88,45.05 165.67,46.95 166.65,49.75"/>
    </edge>
    <edge id=":11_0" function="internal">
        <lane id=":11_0_0" index="0" speed="13.89" length="5.00" shape="183.35,49.75 183.16,48.39 182.57,47.43 181.61,46.84 180.25,46.65"/>
    </edge>
    <edge id=":11_1" function="internal">
        <lane id=":11_1_0" index="0" speed="13.89" length="5.00" shape="189.75,46.65 188.39,46.84 187.42,47.42 186.84,48.39 186.65,49.75"/>
    </edge>
    <edge id=":11_2" function="internal">
        <lane id=":11_2_0" index="0" speed="13.89" length="9.50" shape="189.75,46.65 180.25,46.65"/>
    </edge>
    <edge id=":11_3" function="internal">
        <lane id=":11_3_0" index="0" speed="13.89" length="9.50" shape="180.25,43.35 189.75,43.35"/>
    </edge>
    <edge id=":11_4" function="internal">
        <lane id=":11_4_0" index="0" speed="13.89" length="5.28" shape="180.25,43.35 183.05,43.75 185.05,44.95 185.11,45.05"/>
    </edge>
    <edge id=":11_5" function="internal">
        <lane id=":11_5_0" index="0" speed="13.89" length="5.04" shape="185.11,45.05 186.25,46.95 186.65,49.75"/>
    </edge>
    <edge id=":12_0" function="internal">
        <lane id=":12_0_0" index="0" speed="13.89" length="9.50" shape="203.35,49.75 203.35,40.25"/>
    </edge>
    <edge id=":12_1" function="internal">
        <lane id=":12_1_0" index="0" speed="13.89" length="9.50" shape="206.65,40.25 206.65,49.75"/>
    </edge>
    <edge id=":12_2" function="internal">
        <lane id=":12_2_0" index="0" speed="13.89" length="5.00" shape="200.25,43.35 201.61,43.16 202.58,42.58 203.16,41.61 203.35,40.25"/>
    </edge>
    <edge id=":12_3" function="internal">
        <lane id=":12_3_0" index="0" speed="13.89" length="10.32" shape="200.25,43.35 203.05,43.75 205.05,44.95 206.25,46.95 206.65,49.75"/>
    </edge>
    <edge id=":13_0" function="internal">
        <lane id=":13_0_0" index="0" speed="13.89" length="9.50" shape="-1.65,74.75 -1.65,65.25"/>
    </edge>
    <edge id=":13_1" function="internal">
        <lane id=":13_1_0" index="0" speed="13.89" length="5.28" shape="-1.65,74.75 -1.25,71.95 -0.05,69.95 0.05,69.89"/>
    </edge>
    <edge id=":13_5" function="internal">
        <lane id=":13_5_0" index="0" speed="13.89" length="5.04" shape="0.05,69.89 1.95,68.75 4.75,68.35"/>
    </edge>
    <edge id=":13_2" function="internal">
        <lane id=":13_2_0" index="0" speed="13.89" length="5.00" shape="4.75,71.65 3.39,71.84 2.43,72.43 1.84,73.39 1.65,74.75"/>
    </edge>
    <edge id=":13_3" function="internal">
        <lane id=":13_3_0" index="0" speed="13.89" length="10.32" shape="4.75,71.65 1.95,71.25 -0.05,70.05 -1.25,68.05 -1.65,65.25"/>
    </edge>
    <edge id=":13_4" function="internal">
        <lane id=":13_4_0" index="0" speed="13.89" length="9.50" shape="1.65,65.25 1.65,74.75"/>
    </edge>
    <edge id=":14_0" function="internal">
        <lane id=":14_0_0" index="0" speed="13.89" length="5.28" shape="29.75,71.65 26.95,71.25 24.95,70.05 24.89,69.95"/>
    </edge>
    <edge id=":14_5" function="internal">
        <lane id=":14_5_0" index="0" speed="13.89" length="5.04" shape="24.89,69.95 23.75,68.05 23.35,65.25"/>
    </edge>
    <edge id=":14_1" function="internal">
        <lane id=":14_1_0" index="0" speed="13.89" length="5.00" shape="26.65,65.25 26.84,66.61 27.42,67.57 28.39,68.16 29.75,68.35"/>
    </edge>
    <edge id=":14_2" function="internal">
        <lane id=":14_2_0" index="0" speed="13.89" length="10.32" shape="26.65,65.25 26.25,68.05 25.05,70.05 23.05,71.25 20.25,71.65"/>
    </edge>
    <edge id=":14_3" function="internal">
        <lane id=":14_3_0" index="0" speed="13.89" length="5.00" shape="20.25,68.35 21.61,68.16 22.57,67.57 23.16,66.61 23.35,65.25"/>
    </edge>
    <edge id=":14_4" function="internal">
        <lane id=":14_4_0" index="0" speed="13.89" length="9.50" shape="20.25,68.35 29.75,68.35"/>
    </edge>
    <edge id=":15_0" function="internal">
        <lane id=":15_0_0" index="0" speed="13.89" length="9.50" shape="54.75,71.65 45.25,71.65"/>
    </edge>
    <edge id=":15_1" function="internal">
        <lane id=":15_1_0" index="0" speed="13.89" length="5.28" shape="54.75,71.65 51.95,71.25 49.95,70.05 49.89,69.95"/>
    </edge>
    <edge id=":15_5" function="internal">
        <lane id=":15_5_0" index="0" speed="13.89" length="5.04" shape="49.89,69.95 48.75,68.05 48.35,65.25"/>
    </edge>
    <edge id=":15_2" function="internal">
        <lane id=":15_2_0" index="0" speed="13.89" length="10.32" shape="51.65,65.25 51.25,68.05 50.05,70.05 48.05,71.25 45.25,71.65"/>
    </edge>
    <edge id=":15_3" function="internal">
        <lane id=":15_3_0" index="0" speed="13.89" length="5.00" shape="45.25,68.35 46.61,68.16 47.57,67.57 48.16,66.61 48.35,65.25"/>
    </edge>
    <edge id=":15_4" function="internal">
        <lane id=":15_4_0" index="0" speed="13.89" length="9.50" shape="45.25,68.35 54.75,68.35"/>
    </edge>
    <edge id=":16_0" function="internal">
        <lane id=":16_0_0" index="0" speed="13.89" length="9.50" shape="73.35,74.75 73.35,65.25"/>
    </edge>
    <edge id=":16_1" function="internal">
        <lane id=":16_1_0" index="0" speed="13.89" length="9.50" shape="76.65,65.25 76.65,74.75"/>
    </edge>
    <edge id=":16_2" function="internal">
        <lane id=":16_2_0" index="0" speed="13.89" length="5.28" shape="76.65,65.25 76.25,68.05 75.05,70.05 74.95,70.11"/>
    </edge>
    <edge id=":16_5" function="internal">
        <lane id=":16_5_0" index="0" speed="13.89" length="5.04" shape="74.95,70.11 73.05,71.25 70.25,71.65"/>
    </edge>
    <edge id=":16_3" function="internal">
        <lane id=":16_3_0" index="0" speed="13.89" length="5.00" shape="70.25,68.35 71.61,68.16 72.57,67.57 73.16,66.61 73.35,65.25"/>
    </edge>
    <edge id=":16_4" function="internal">
        <lane id=":16_4_0" index="0" speed="13.89" length="10.32" shape="70.25,68.35 73.05,68.75 75.05,69.95 76.25,71.95 76.65,74.75"/>
    </edge>
    <edge id=":17_0" function="internal">
        <lane id=":17_0_0" index="0" speed="13.89" length="9.50" shape="183.35,77.75 183.35,68.25"/>
    </edge>
    <edge id=":17_1" function="internal">
        <lane id=":17_1_0" index="0" speed="13.89" length="5.28" shape="183.35,77.75 183.75,74.95 184.95,72.95 185.05,72.89"/>
    </edge>
    <edge id=":17_5" function="internal">
        <lane id=":17_5_0" index="0" speed="13.89" length="5.04" shape="185.05,72.89 186.95,71.75 189.75,71.35"/>
    </edge>
    <edge id=":17_2" function="internal">
        <lane id=":17_2_0" index="0" speed="13.89" length="10.32" shape="189.75,74.65 186.95,74.25 184.95,73.05 183.75,71.05 183.35,68.25"/>
    </edge>
    <edge id=":17_3" function="internal">
        <lane id=":17_3_0" index="0" speed="13.89" length="5.00" shape="186.65,68.25 186.84,69.61 187.43,70.57 188.39,71.16 189.75,71.35"/>
    </edge>
    <edge id=":17_4" function="internal">
        <lane id=":17_4_0" index="0" speed="13.89" length="9.50" shape="186.65,68.25 186.65,77.75"/>
    </edge>
    <edge id=":18_0" function="internal">
        <lane id=":18_0_0" index="0" speed="13.89" length="9.50" shape="203.35,77.75 203.35,68.25"/>
    </edge>
    <edge id=":18_1" function="internal">
        <lane id=":18_1_0" index="0" speed="13.89" length="5.28" shape="206.65,68.25 206.25,71.05 205.05,73.05 204.95,73.11"/>
    </edge>
    <edge id=":18_4" function="internal">
        <lane id=":18_4_0" index="0" speed="13.89" length="5.04" shape="204.95,73.11 203.05,74.25 200.25,74.65"/>
    </edge>
    <edge id=":18_2" function="internal">
        <lane id=":18_2_0" index="0" speed="13.89" length="5.00" shape="200.25,71.35 201.61,71.16 202.58,70.57 203.16,69.61 203.35,68.25"/>
    </edge>
    <edge id=":18_3" function="internal">
        <lane id=":18_3_0" index="0" speed="13.89" length="10.32" shape="200.25,71.35 203.05,71.75 205.05,72.95 206.25,74.95 206.65,77.75"/>
    </edge>
    <edge id=":19_0" function="internal">
        <lane id=":19_0_0" index="0" speed="13.89" length="7.90" shape="3.25,96.65 1.11,96.34 -0.43,95.43 -1.34,93.89 -1.65,91.75"/>
    </edge>
    <edge id=":19_1" function="internal">
        <lane id=":19_1_0" index="0" speed="13.89" length="2.58" shape="1.65,91.75 1.75,92.45 2.05,92.95 2.55,93.25 3.25,93.35"/>
    </edge>
    <edge id=":2_0" function="internal">
        <lane id=":2_0_0" index="0" speed="13.89" length="6.47" shape="118.35,24.75 118.05,23.39 117.14,22.42 115.62,21.84 113.50,21.65"/>
    </edge>
    <edge id=":2_1" function="internal">
        <lane id=":2_1_0" index="0" speed="13.89" length="10.32" shape="118.35,24.75 118.75,21.95 119.95,19.95 121.95,18.75 124.75,18.35"/>
    </edge>
    <edge id=":2_2" function="internal">
        <lane id=":2_2_0" index="0" speed="13.89" length="5.00" shape="124.75,21.65 123.39,21.84 122.43,22.42 121.84,23.39 121.65,24.75"/>
    </edge>
    <edge id=":2_3" function="internal">
        <lane id=":2_3_0" index="0" speed="13.89" length="8.65" shape="113.50,18.35 117.07,18.75 119.61,19.95 120.97,21.73"/>
    </edge>
    <edge id=":2_4" function="internal">
        <lane id=":2_4_0" index="0" speed="13.89" length="3.12" shape="120.97,21.73 121.14,21.95 121.65,24.75"/>
    </edge>
    <edge id=":20_0" function="internal">
        <lane id=":20_0_0" index="0" speed="13.89" length="9.50" shape="73.35,99.75 73.35,90.25"/>
    </edge>
    <edge id=":20_1" function="internal">
        <lane id=":20_1_0" index="0" speed="13.89" length="9.50" shape="76.65,90.25 76.65,99.75"/>
    </edge>
    <edge id=":20_2" function="internal">
        <lane id=":20_2_0" index="0" speed="13.89" length="5.28" shape="76.65,90.25 76.25,93.05 75.05,95.05 74.95,95.11"/>
    </edge>
    <edge id=":20_4" function="internal">
        <lane id=":20_4_0" index="0" speed="13.89" length="5.04" shape="74.95,95.11 73.05,96.25 70.25,96.65"/>
    </edge>
    <edge id=":20_3" function="internal">
        <lane id=":20_3_0" index="0" speed="13.89" length="10.32" shape="70.25,93.35 73.05,93.75 75.05,94.95 76.25,96.95 76.65,99.75"/>
    </edge>
    <edge id=":21_0" function="internal">
        <lane id=":21_0_0" index="0" speed="13.89" length="5.28" shape="163.35,99.75 163.75,96.95 164.95,94.95 165.05,94.89"/>
    </edge>
    <edge id=":21_4" function="internal">
        <lane id=":21_4_0" index="0" speed="13.89" length="5.04" shape="165.05,94.89 166.95,93.75 169.75,93.35"/>
    </edge>
    <edge id=":21_1" function="internal">
        <lane id=":21_1_0" index="0" speed="13.89" length="5.00" shape="169.75,96.65 168.39,96.84 167.43,97.43 166.84,98.39 166.65,99.75"/>
    </edge>
    <edge id=":21_2" function="internal">
        <lane id=":21_2_0" index="0" speed="13.89" length="18.41" shape="169.75,96.65 166.95,95.67 164.95,92.74 163.75,87.85 163.35,81.00"/>
    </edge>
    <edge id=":21_3" function="internal">
        <lane id=":21_3_0" index="0" speed="13.89" length="18.75" shape="166.65,81.00 166.65,85.34 166.65,90.38 166.65,95.41 166.65,99.75"/>
    </edge>
    <edge id=":22_0" function="internal">
        <lane id=":22_0_0" index="0" speed="13.89" length="9.50" shape="189.75,96.65 180.25,96.65"/>
    </edge>
    <edge id=":22_1" function="internal">
        <lane id=":22_1_0" index="0" speed="13.89" length="5.28" shape="189.75,96.65 186.95,96.25 184.95,95.05 184.89,94.95"/>
    </edge>
    <edge id=":22_5" function="internal">
        <lane id=":22_5_0" index="0" speed="13.89" length="5.04" shape="184.89,94.95 183.75,93.05 183.35,90.25"/>
    </edge>
    <edge id=":22_2" function="internal">
        <lane id=":22_2_0" index="0" speed="13.89" length="5.00" shape="186.65,90.25 186.84,91.61 187.43,92.57 188.39,93.16 189.75,93.35"/>
    </edge>
    <edge id=":22_3" function="internal">
        <lane id=":22_3_0" index="0" speed="13.89" length="10.32" shape="186.65,90.25 186.25,93.05 185.05,95.05 183.05,96.25 180.25,96.65"/>
    </edge>
    <edge id=":22_4" function="internal">
        <lane id=":22_4_0" index="0" speed="13.89" length="9.50" shape="180.25,93.35 189.75,93.35"/>
    </edge>
    <edge id=":23_0" function="internal">
        <lane id=":23_0_0" index="0" speed="13.89" length="5.28" shape="209.75,96.65 206.95,96.25 204.95,95.05 204.89,94.95"/>
    </edge>
    <edge id=":23_4" function="internal">
        <lane id=":23_4_0" index="0" speed="13.89" length="5.04" shape="204.89,94.95 203.75,93.05 203.35,90.25"/>
    </edge>
    <edge id=":23_1" function="internal">
        <lane id=":23_1_0" index="0" speed="13.89" length="5.00" shape="206.65,90.25 206.84,91.61 207.43,92.57 208.39,93.16 209.75,93.35"/>
    </edge>
    <edge id=":23_2" function="internal">
        <lane id=":23_2_0" index="0" speed="13.89" length="10.32" shape="206.65,90.25 206.25,93.05 205.05,95.05 203.05,96.25 200.25,96.65"/>
    </edge>
    <edge id=":23_3" function="internal">
        <lane id=":23_3_0" index="0" speed="13.89" length="9.50" shape="200.25,93.35 209.75,93.35"/>
    </edge>
    <edge id=":24_0" function="internal">
        <lane id=":24_0_0" index="0" speed="13.89" length="4.82" shape="228.00,93.35 229.24,94.18 229.65,95.00 229.24,95.83 228.00,96.65"/>
    </edge>
    <edge id=":25_0" function="internal">
        <lane id=":25_0_0" index="0" speed="13.89" length="4.82" shape="45.00,121.65 43.76,120.83 43.35,120.00 43.76,119.17 45.00,118.35"/>
    </edge>
    <edge id=":26_0" function="internal">
        <lane id=":26_0_0" index="0" speed="13.89" length="13.75" shape="84.00,121.65 80.45,121.65 77.13,121.65 73.80,121.65 70.25,121.65"/>
    </edge>
    <edge id=":26_1" function="internal">
        <lane id=":26_1_0" index="0" speed="13.89" length="4.82" shape="76.65,115.25 75.82,116.49 75.00,116.90 74.17,116.49 73.35,115.25"/>
    </edge>
    <edge id=":26_2" function="internal">
        <lane id=":26_2_0" index="0" speed="13.89" length="13.75" shape="70.25,118.35 73.80,118.35 77.13,118.35 80.45,118.35 84.00,118.35"/>
    </edge>
    <edge id=":27_0" function="internal">
        <lane id=":27_0_0" index="0" speed="13.89" length="5.28" shape="124.75,121.65 121.95,121.25 119.95,120.05 119.89,119.95"/>
    </edge>
    <edge id=":27_3" function="internal">
        <lane id=":27_3_0" index="0" speed="13.89" length="5.04" shape="119.89,119.95 118.75,118.05 118.35,115.25"/>
    </edge>
    <edge id=":27_1" function="internal">
        <lane id=":27_1_0" index="0" speed="13.89" length="10.32" shape="121.65,115.25 121.25,118.05 120.05,120.05 118.05,121.25 115.25,121.65"/>
    </edge>
    <edge id=":27_2" function="internal">
        <lane id=":27_2_0" index="0" speed="13.89" length="9.50" shape="115.25,118.35 124.75,118.35"/>
    </edge>
    <edge id=":28_0" function="internal">
        <lane id=":28_0_0" index="0" speed="13.89" length="15.25" shape="175.50,121.65 171.71,121.65 167.88,121.65 164.04,121.65 160.25,121.65"/>
    </edge>
    <edge id=":28_1" function="internal">
        <lane id=":28_1_0" index="0" speed="13.89" length="4.82" shape="166.65,115.25 165.83,116.49 165.00,116.90 164.18,116.49 163.35,115.25"/>
    </edge>
    <edge id=":28_2" function="internal">
        <lane id=":28_2_0" index="0" speed="13.89" length="15.25" shape="160.25,118.35 164.04,118.35 167.88,118.35 171.71,118.35 175.50,118.35"/>
    </edge>
    <edge id=":29_0" function="internal">
        <lane id=":29_0_0" index="0" speed="13.89" length="5.00" shape="226.35,124.75 226.16,123.39 225.57,122.43 224.61,121.84 223.25,121.65"/>
    </edge>
    <edge id=":29_1" function="internal">
        <lane id=":29_1_0" index="0" speed="13.89" length="9.50" shape="226.35,124.75 226.35,115.25"/>
    </edge>
    <edge id=":29_2" function="internal">
        <lane id=":29_2_0" index="0" speed="13.89" length="9.50" shape="229.65,115.25 229.65,124.75"/>
    </edge>
    <edge id=":29_3" function="internal">
        <lane id=":29_3_0" index="0" speed="13.89" length="5.28" shape="229.65,115.25 229.25,118.05 228.05,120.05 227.95,120.11"/>
    </edge>
    <edge id=":29_5" function="internal">
        <lane id=":29_5_0" index="0" speed="13.89" length="5.04" shape="227.95,120.11 226.05,121.25 223.25,121.65"/>
    </edge>
    <edge id=":29_4" function="internal">
        <lane id=":29_4_0" index="0" speed="13.89" length="4.82" shape="223.25,118.35 224.49,119.18 224.90,120.00 224.49,120.83 223.25,121.65"/>
    </edge>
    <edge id=":3_0" function="internal">
        <lane id=":3_0_0" index="0" speed="13.89" length="10.32" shape="203.35,24.75 203.75,21.95 204.95,19.95 206.95,18.75 209.75,18.35"/>
    </edge>
    <edge id=":3_1" function="internal">
        <lane id=":3_1_0" index="0" speed="13.89" length="5.00" shape="209.75,21.65 208.39,21.84 207.42,22.42 206.84,23.39 206.65,24.75"/>
    </edge>
    <edge id=":3_2" function="internal">
        <lane id=":3_2_0" index="0" speed="13.89" length="9.50" shape="209.75,21.65 200.25,21.65"/>
    </edge>
    <edge id=":3_3" function="internal">
        <lane id=":3_3_0" index="0" speed="13.89" length="9.50" shape="200.25,18.35 209.75,18.35"/>
    </edge>
    <edge id=":4_0" function="internal">
        <lane id=":4_0_0" index="0" speed="13.89" length="5.00" shape="226.35,24.75 226.16,23.39 225.57,22.43 224.61,21.84 223.25,21.65"/>
    </edge>
    <edge id=":4_1" function="internal">
        <lane id=":4_1_0" index="0" speed="13.89" length="9.50" shape="226.35,24.75 226.35,15.25"/>
    </edge>
    <edge id=":4_2" function="internal">
        <lane id=":4_2_0" index="0" speed="13.89" length="9.50" shape="229.65,15.25 229.65,24.75"/>
    </edge>
    <edge id=":4_3" function="internal">
        <lane id=":4_3_0" index="0" speed="13.89" length="5.28" shape="229.65,15.25 229.25,18.05 228.05,20.05 227.95,20.11"/>
    </edge>
    <edge id=":4_6" function="internal">
        <lane id=":4_6_0" index="0" speed="13.89" length="5.04" shape="227.95,20.11 226.05,21.25 223.25,21.65"/>
    </edge>
    <edge id=":4_4" function="internal">
        <lane id=":4_4_0" index="0" speed="13.89" length="5.00" shape="223.25,18.35 224.61,18.16 225.58,17.58 226.16,16.61 226.35,15.25"/>
    </edge>
    <edge id=":4_5" function="internal">
        <lane id=":4_5_0" index="0" speed="13.89" length="10.32" shape="223.25,18.35 226.05,18.75 228.05,19.95 229.25,21.95 229.65,24.75"/>
    </edge>
    <edge id=":5_0" function="internal">
        <lane id=":5_0_0" index="0" speed="13.89" length="7.90" shape="-1.65,48.25 -1.34,46.11 -0.42,44.57 1.11,43.66 3.25,43.35"/>
    </edge>
    <edge id=":5_1" function="internal">
        <lane id=":5_1_0" index="0" speed="13.89" length="2.58" shape="3.25,46.65 2.55,46.75 2.05,47.05 1.75,47.55 1.65,48.25"/>
    </edge>
    <edge id=":6_0" function="internal">
        <lane id=":6_0_0" index="0" speed="13.89" length="5.00" shape="23.35,49.75 23.16,48.39 22.57,47.43 21.61,46.84 20.25,46.65"/>
    </edge>
    <edge id=":6_1" function="internal">
        <lane id=":6_1_0" index="0" speed="13.89" length="5.00" shape="29.75,46.65 28.39,46.84 27.42,47.42 26.84,48.39 26.65,49.75"/>
    </edge>
    <edge id=":6_2" function="internal">
        <lane id=":6_2_0" index="0" speed="13.89" length="9.50" shape="29.75,46.65 20.25,46.65"/>
    </edge>
    <edge id=":6_3" function="internal">
        <lane id=":6_3_0" index="0" speed="13.89" length="9.50" shape="20.25,43.35 29.75,43.35"/>
    </edge>
    <edge id=":6_4" function="internal">
        <lane id=":6_4_0" index="0" speed="13.89" length="5.28" shape="20.25,43.35 23.05,43.75 25.05,44.95 25.11,45.05"/>
    </edge>
    <edge id=":6_5" function="internal">
        <lane id=":6_5_0" index="0" speed="13.89" length="5.04" shape="25.11,45.05 26.25,46.95 26.65,49.75"/>
    </edge>
    <edge id=":7_0" function="internal">
        <lane id=":7_0_0" index="0" speed="13.89" length="5.00" shape="48.35,49.75 48.16,48.39 47.58,47.43 46.61,46.84 45.25,46.65"/>
    </edge>
    <edge id=":7_1" function="internal">
        <lane id=":7_1_0" index="0" speed="13.89" length="10.32" shape="48.35,49.75 48.75,46.95 49.95,44.95 51.95,43.75 54.75,43.35"/>
    </edge>
    <edge id=":7_2" function="internal">
        <lane id=":7_2_0" index="0" speed="13.89" length="5.00" shape="54.75,46.65 53.39,46.84 52.43,47.42 51.84,48.39 51.65,49.75"/>
    </edge>
    <edge id=":7_3" function="internal">
        <lane id=":7_3_0" index="0" speed="13.89" length="9.50" shape="45.25,43.35 54.75,43.35"/>
    </edge>
    <edge id=":7_4" function="internal">
        <lane id=":7_4_0" index="0" speed="13.89" length="7.10" shape="45.25,43.35 48.05,43.75 50.05,44.95 51.05,46.61"/>
    </edge>
    <edge id=":7_5" function="internal">
        <lane id=":7_5_0" index="0" speed="13.89" length="3.22" shape="51.05,46.61 51.25,46.95 51.65,49.75"/>
    </edge>
    <edge id=":8_0" function="internal">
        <lane id=":8_0_0" index="0" speed="13.89" length="16.14" shape="73.35,49.75 74.17,46.95 76.64,44.95 80.75,43.75 86.50,43.35"/>
    </edge>
    <edge id=":8_1" function="internal">
        <lane id=":8_1_0" index="0" speed="13.89" length="16.25" shape="86.50,46.65 82.55,46.65 78.38,46.65 74.20,46.65 70.25,46.65"/>
    </edge>
    <edge id=":8_2" function="internal">
        <lane id=":8_2_0" index="0" speed="13.89" length="16.25" shape="70.25,43.35 74.20,43.35 78.38,43.35 82.55,43.35 86.50,43.35"/>
    </edge>
    <edge id=":8_3" function="internal">
        <lane id=":8_3_0" index="0" speed="13.89" length="5.28" shape="70.25,43.35 73.05,43.75 75.05,44.95 75.11,45.05"/>
    </edge>
    <edge id=":8_4" function="internal">
        <lane id=":8_4_0" index="0" speed="13.89" length="5.04" shape="75.11,45.05 76.25,46.95 76.65,49.75"/>
    </edge>
    <edge id=":9_0" function="internal">
        <lane id=":9_0_0" index="0" speed="13.89" length="9.50" shape="118.35,49.75 118.35,40.25"/>
    </edge>
    <edge id=":9_1" function="internal">
        <lane id=":9_1_0" index="0" speed="13.89" length="4.82" shape="124.75,46.65 123.51,45.82 123.10,45.00 123.51,44.17 124.75,43.35"/>
    </edge>
    <edge id=":9_2" function="internal">
        <lane id=":9_2_0" index="0" speed="13.89" length="9.50" shape="121.65,40.25 121.65,49.75"/>
    </edge>
    <edge id=":9_3" function="internal">
        <lane id=":9_3_0" index="0" speed="13.89" length="5.28" shape="121.65,40.25 121.25,43.05 120.05,45.05 119.95,45.11"/>
    </edge>
    <edge id=":9_5" function="internal">
        <lane id=":9_5_0" index="0" speed="13.89" length="5.04" shape="119.95,45.11 118.05,46.25 115.25,46.65"/>
    </edge>
    <edge id=":9_4" function="internal">
        <lane id=":9_4_0" index="0" speed="13.89" length="5.00" shape="115.25,43.35 116.61,43.16 117.57,42.58 118.16,41.61 118.35,40.25"/>
    </edge>

    <edge id="D1011" from="10" to="11" priority="2" type="1lane">
        <lane id="D1011_0" index="0" speed="13.89" length="10.50" shape="169.75,43.35 180.25,43.35"/>
    </edge>
    <edge id="D1021" from="10" to="21" priority="2" type="1lane">
        <lane id="D1021_0" index="0" speed="13.89" length="31.25" shape="166.65,49.75 166.65,81.00"/>
    </edge>
    <edge id="D109" from="10" to="9" priority="2" type="1lane">
        <lane id="D109_0" index="0" speed="13.89" length="26.25" shape="151.00,46.65 124.75,46.65"/>
    </edge>
    <edge id="D1110" from="11" to="10" priority="2" type="1lane">
        <lane id="D1110_0" index="0" speed="13.89" length="10.50" shape="180.25,46.65 169.75,46.65"/>
    </edge>
    <edge id="D1112" from="11" to="12" priority="2" type="1lane">
        <lane id="D1112_0" index="0" speed="13.89" length="10.50" shape="189.75,43.35 200.25,43.35"/>
    </edge>
    <edge id="D1117" from="11" to="17" priority="2" type="1lane">
        <lane id="D1117_0" index="0" speed="13.89" length="18.50" shape="186.65,49.75 186.65,68.25"/>
    </edge>
    <edge id="D12" from="1" to="2" priority="2" type="1lane">
        <lane id="D12_0" index="0" speed="13.89" length="88.50" shape="25.00,18.35 113.50,18.35"/>
    </edge>
    <edge id="D1211" from="12" to="11" priority="2" type="1lane">
        <lane id="D1211_0" index="0" speed="13.89" length="10.50" shape="200.25,46.65 189.75,46.65"/>
    </edge>
    <edge id="D1218" from="12" to="18" priority="2" type="1lane">
        <lane id="D1218_0" index="0" speed="13.89" length="18.50" shape="206.65,49.75 206.65,68.25"/>
    </edge>
    <edge id="D123" from="12" to="3" priority="2" type="1lane">
        <lane id="D123_0" index="0" speed="13.89" length="15.50" shape="203.35,40.25 203.35,24.75"/>
    </edge>
    <edge id="D1314" from="13" to="14" priority="2" type="1lane">
        <lane id="D1314_0" index="0" speed="13.89" length="15.50" shape="4.75,68.35 20.25,68.35"/>
    </edge>
    <edge id="D1319" from="13" to="19" priority="2" type="1lane">
        <lane id="D1319_0" index="0" speed="13.89" length="17.00" shape="1.65,74.75 1.65,91.75"/>
    </edge>
    <edge id="D135" from="13" to="5" priority="2" type="1lane">
        <lane id="D135_0" index="0" speed="13.89" length="17.00" shape="-1.65,65.25 -1.65,48.25"/>
    </edge>
    <edge id="D1413" from="14" to="13" priority="2" type="1lane">
        <lane id="D1413_0" index="0" speed="13.89" length="15.50" shape="20.25,71.65 4.75,71.65"/>
    </edge>
    <edge id="D1415" from="14" to="15" priority="2" type="1lane">
        <lane id="D1415_0" index="0" speed="13.89" length="15.50" shape="29.75,68.35 45.25,68.35"/>
    </edge>
    <edge id="D146" from="14" to="6" priority="2" type="1lane">
        <lane id="D146_0" index="0" speed="13.89" length="15.50" shape="23.35,65.25 23.35,49.75"/>
    </edge>
    <edge id="D1514" from="15" to="14" priority="2" type="1lane">
        <lane id="D1514_0" index="0" speed="13.89" length="15.50" shape="45.25,71.65 29.75,71.65"/>
    </edge>
    <edge id="D1516" from="15" to="16" priority="2" type="1lane">
        <lane id="D1516_0" index="0" speed="13.89" length="15.50" shape="54.75,68.35 70.25,68.35"/>
    </edge>
    <edge id="D157" from="15" to="7" priority="2" type="1lane">
        <lane id="D157_0" index="0" speed="13.89" length="15.50" shape="48.35,65.25 48.35,49.75"/>
    </edge>
    <edge id="D1615" from="16" to="15" priority="2" type="1lane">
        <lane id="D1615_0" index="0" speed="13.89" length="15.50" shape="70.25,71.65 54.75,71.65"/>
    </edge>
    <edge id="D1620" from="16" to="20" priority="2" type="1lane">
        <lane id="D1620_0" index="0" speed="13.89" length="15.50" shape="76.65,74.75 76.65,90.25"/>
    </edge>
    <edge id="D168" from="16" to="8" priority="2" type="1lane">
        <lane id="D168_0" index="0" speed="13.89" length="15.50" shape="73.35,65.25 73.35,49.75"/>
    </edge>
    <edge id="D1711" from="17" to="11" priority="2" type="1lane">
        <lane id="D1711_0" index="0" speed="13.89" length="18.50" shape="183.35,68.25 183.35,49.75"/>
    </edge>
    <edge id="D1718" from="17" to="18" priority="2" type="1lane">
        <lane id="D1718_0" index="0" speed="13.89" length="10.50" shape="189.75,71.35 200.25,71.35"/>
    </edge>
    <edge id="D1722" from="17" to="22" priority="2" type="1lane">
        <lane id="D1722_0" index="0" speed="13.89" length="12.50" shape="186.65,77.75 186.65,90.25"/>
    </edge>
    <edge id="D1812" from="18" to="12" priority="2" type="1lane">
        <lane id="D1812_0" index="0" speed="13.89" length="18.50" shape="203.35,68.25 203.35,49.75"/>
    </edge>
    <edge id="D1817" from="18" to="17" priority="2" type="1lane">
        <lane id="D1817_0" index="0" speed="13.89" length="10.50" shape="200.25,74.65 189.75,74.65"/>
    </edge>
    <edge id="D1823" from="18" to="23" priority="2" type="1lane">
        <lane id="D1823_0" index="0" speed="13.89" length="12.50" shape="206.65,77.75 206.65,90.25"/>
    </edge>
    <edge id="D1913" from="19" to="13" priority="2" type="1lane">
        <lane id="D1913_0" index="0" speed="13.89" length="17.00" shape="-1.65,91.75 -1.65,74.75"/>
    </edge>
    <edge id="D1920" from="19" to="20" priority="2" type="1lane">
        <lane id="D1920_0" index="0" speed="13.89" length="67.00" shape="3.25,93.35 70.25,93.35"/>
    </edge>
    <edge id="D2016" from="20" to="16" priority="2" type="1lane">
        <lane id="D2016_0" index="0" speed="13.89" length="15.50" shape="73.35,90.25 73.35,74.75"/>
    </edge>