<?xml version="1.0" encoding="UTF-8"?>
<types>
   <type id="1lane" priority="2" numLanes="1" speed="13.889" function="internal"/>   
</types>