<?xml version="1.0" encoding="UTF-8"?>
<nodes xmlns:xsi="http://www.w3.org/2001/XMLSchema-instance"
 xsi:noNamespaceSchemaLocation="C:\Program Files (x86)\DLR\Sumo\data\xsd\nodes_file.xsd">
   <node id="1" x="0.0" y="0.0" />
   <node id="2" x="95.0" y="0.0" />
   <node id="3" x="180.0" y="0.0" />
   <node id="4" x="203.0" y="0.0" />
   <node id="5" x="-25.0" y="25.0" />
   <node id="6" x="0.0" y="25.0" />
   <node id="7" x="25.0" y="25.0" />
   <node id="8" x="50.0" y="25.0" />
   <node id="9" x="95.0" y="25.0" />
   <node id="10" x="140.0" y="25.0" />
   <node id="11" x="160.0" y="25.0" />
   <node id="12" x="180.0" y="25.0" />
   <node id="13" x="-25.0" y="50.0" />
   <node id="14" x="0.0" y="50.0" />
   <node id="15" x="25.0" y="50.0" />
   <node id="16" x="50.0" y="50.0" />
   <node id="17" x="160.0" y="53.0" />
   <node id="18" x="180.0" y="53.0" />
   <node id="19" x="-25.0" y="75.0" />
   <node id="20" x="50.0" y="75.0" />
   <node id="21" x="140.0" y="75.0" />
   <node id="22" x="160.0" y="75.0" />
   <node id="23" x="180.0" y="75.0" />
   <node id="24" x="203.0" y="75.0" />
   <node id="25" x="20.0" y="100.0" />
   <node id="26" x="50.0" y="100.0" />
   <node id="27" x="95.0" y="100.0" />
   <node id="28" x="140.0" y="100.0" />
   <node id="29" x="203.0" y="100.0" /> 
	<node id="4a" x="203.0" y="-20.0" />  
	<node id="29a" x="203.0" y="110.0" /> 
</nodes>